583
generated by MOF_BUILD
Al      6.000   0.000  32.000
DD      5.191   0.397  31.994
DD      5.707  -0.578  31.381
DD      6.255   0.614  31.398
DD      6.803  -0.398  32.012
DD      6.317   0.591  32.597
DD      5.711  -0.565  32.639
Al      3.000  16.000  32.000
DD      2.191  16.397  31.994
DD      2.707  15.422  31.381
DD      3.255  16.614  31.398
DD      3.803  15.602  32.012
DD      3.317  16.591  32.597
DD      2.711  15.435  32.639
Al      6.000   0.000   0.000
DD      5.191   0.397  -0.006
DD      5.707  -0.578  -0.619
DD      6.255   0.614  -0.602
DD      6.803  -0.398   0.012
DD      6.317   0.591   0.597
DD      5.711  -0.565   0.639
Al      3.000  16.000   0.000
DD      2.191  16.397  -0.006
DD      2.707  15.422  -0.619
DD      3.255  16.614  -0.602
DD      3.803  15.602   0.012
DD      3.317  16.591   0.597
DD      2.711  15.435   0.639
Al      0.000   0.000  32.000
DD     -0.809   0.397  31.994
DD     -0.293  -0.578  31.381
DD      0.255   0.614  31.398
DD      0.803  -0.398  32.012
DD      0.317   0.591  32.597
DD     -0.289  -0.565  32.639
Al      0.000   0.000  16.000
DD     -0.809   0.397  15.994
DD     -0.293  -0.578  15.381
DD      0.255   0.614  15.398
DD      0.803  -0.398  16.012
DD      0.317   0.591  16.597
DD     -0.289  -0.565  16.639
Al      0.000   0.000   0.000
DD     -0.809   0.397  -0.006
DD     -0.293  -0.578  -0.619
DD      0.255   0.614  -0.602
DD      0.803  -0.398   0.012
DD      0.317   0.591   0.597
DD     -0.289  -0.565   0.639
Al      6.000   0.000  16.000
DD      5.191   0.397  15.994
DD      5.707  -0.578  15.381
DD      6.255   0.614  15.398
DD      6.803  -0.398  16.012
DD      6.317   0.591  16.597
DD      5.711  -0.565  16.639
Al      3.000  16.000  16.000
DD      2.191  16.397  15.994
DD      2.707  15.422  15.381
DD      3.255  16.614  15.398
DD      3.803  15.602  16.012
DD      3.317  16.591  16.597
DD      2.711  15.435  16.639
Al      0.000  32.000  16.000
DD     -0.809  32.397  15.994
DD     -0.293  31.422  15.381
DD      0.255  32.614  15.398
DD      0.803  31.602  16.012
DD      0.317  32.591  16.597
DD     -0.289  31.435  16.639
Al      0.000  32.000   0.000
DD     -0.809  32.397  -0.006
DD     -0.293  31.422  -0.619
DD      0.255  32.614  -0.602
DD      0.803  31.602   0.012
DD      0.317  32.591   0.597
DD     -0.289  31.435   0.639
Al      0.000  32.000  32.000
DD     -0.809  32.397  31.994
DD     -0.293  31.422  31.381
DD      0.255  32.614  31.398
DD      0.803  31.602  32.012
DD      0.317  32.591  32.597
DD     -0.289  31.435  32.639
Al      6.000  32.000  16.000
DD      5.191  32.397  15.994
DD      5.707  31.422  15.381
DD      6.255  32.614  15.398
DD      6.803  31.602  16.012
DD      6.317  32.591  16.597
DD      5.711  31.435  16.639
Al      6.000  32.000   0.000
DD      5.191  32.397  -0.006
DD      5.707  31.422  -0.619
DD      6.255  32.614  -0.602
DD      6.803  31.602   0.012
DD      6.317  32.591   0.597
DD      5.711  31.435   0.639
Al      6.000  32.000  32.000
DD      5.191  32.397  31.994
DD      5.707  31.422  31.381
DD      6.255  32.614  31.398
DD      6.803  31.602  32.012
DD      6.317  32.591  32.597
DD      5.711  31.435  32.639
Al      0.000  16.000   0.000
DD     -0.809  15.603   0.006
DD     -0.293  16.578   0.619
DD      0.255  15.386   0.602
DD      0.803  16.398  -0.012
DD      0.317  15.409  -0.597
DD     -0.289  16.565  -0.639
Al      6.000  16.000  32.000
DD      5.191  15.603  32.006
DD      5.707  16.578  32.619
DD      6.255  15.386  32.602
DD      6.803  16.398  31.988
DD      6.317  15.409  31.403
DD      5.711  16.565  31.361
Al      6.000  16.000  16.000
DD      5.191  15.603  16.006
DD      5.707  16.578  16.619
DD      6.255  15.386  16.602
DD      6.803  16.398  15.988
DD      6.317  15.409  15.403
DD      5.711  16.565  15.361
Al      6.000  16.000   0.000
DD      5.191  15.603   0.006
DD      5.707  16.578   0.619
DD      6.255  15.386   0.602
DD      6.803  16.398  -0.012
DD      6.317  15.409  -0.597
DD      5.711  16.565  -0.639
Al      3.000   0.000  32.000
DD      2.191  -0.397  32.006
DD      2.707   0.578  32.619
DD      3.255  -0.614  32.602
DD      3.803   0.398  31.988
DD      3.317  -0.591  31.403
DD      2.711   0.565  31.361
Al      3.000   0.000  16.000
DD      2.191  -0.397  16.006
DD      2.707   0.578  16.619
DD      3.255  -0.614  16.602
DD      3.803   0.398  15.988
DD      3.317  -0.591  15.403
DD      2.711   0.565  15.361
Al      0.000  16.000  16.000
DD     -0.809  15.603  16.006
DD     -0.293  16.578  16.619
DD      0.255  15.386  16.602
DD      0.803  16.398  15.988
DD      0.317  15.409  15.403
DD     -0.289  16.565  15.361
Al      3.000   0.000   0.000
DD      2.191  -0.397   0.006
DD      2.707   0.578   0.619
DD      3.255  -0.614   0.602
DD      3.803   0.398  -0.012
DD      3.317  -0.591  -0.597
DD      2.711   0.565  -0.639
Al      0.000  16.000  32.000
DD     -0.809  15.603  32.006
DD     -0.293  16.578  32.619
DD      0.255  15.386  32.602
DD      0.803  16.398  31.988
DD      0.317  15.409  31.403
DD     -0.289  16.565  31.361
Al      3.000  32.000   0.000
DD      2.191  31.603   0.006
DD      2.707  32.578   0.619
DD      3.255  31.386   0.602
DD      3.803  32.398  -0.012
DD      3.317  31.409  -0.597
DD      2.711  32.565  -0.639
Al      3.000  32.000  32.000
DD      2.191  31.603  32.006
DD      2.707  32.578  32.619
DD      3.255  31.386  32.602
DD      3.803  32.398  31.988
DD      3.317  31.409  31.403
DD      2.711  32.565  31.361
Al      3.000  32.000  16.000
DD      2.191  31.603  16.006
DD      2.707  32.578  16.619
DD      3.255  31.386  16.602
DD      3.803  32.398  15.988
DD      3.317  31.409  15.403
DD      2.711  32.565  15.361
O       7.654  -0.858  31.997
H       7.654  -1.846  31.997
O       4.654  15.142  31.997
H       4.654  14.154  31.997
O       7.654  -0.858  -0.003
H       7.654  -1.846  -0.003
O       4.654  15.142  -0.003
H       4.654  14.154  -0.003
O       1.654  -0.858  31.997
H       1.654  -1.846  31.997
O       1.654  -0.858  15.997
H       1.654  -1.846  15.997
O       1.654  -0.858  -0.003
H       1.654  -1.846  -0.003
O       7.654  -0.858  15.997
H       7.654  -1.846  15.997
O       4.654  15.142  15.997
H       4.654  14.154  15.997
O       1.654  31.142  15.997
H       1.654  30.154  15.997
O       1.654  31.142  -0.003
H       1.654  30.154  -0.003
O       1.654  31.142  31.997
H       1.654  30.154  31.997
O       7.654  31.142  15.997
H       7.654  30.154  15.997
O       7.654  31.142  -0.003
H       7.654  30.154  -0.003
O       7.654  31.142  31.997
H       7.654  30.154  31.997
O       1.654  16.858   0.003
H       1.654  17.846   0.003
O       7.654  16.858  32.003
H       7.654  17.846  32.003
O       7.654  16.858  16.003
H       7.654  17.846  16.003
O       7.654  16.858   0.003
H       7.654  17.846   0.003
O       4.654   0.858  32.003
H       4.654   1.846  32.003
O       4.654   0.858  16.003
H       4.654   1.846  16.003
O       1.654  16.858  16.003
H       1.654  17.846  16.003
O       4.654   0.858   0.003
H       4.654   1.846   0.003
O       1.654  16.858  32.003
H       1.654  17.846  32.003
O       4.654  32.858   0.003
H       4.654  33.846   0.003
O       4.654  32.858  32.003
H       4.654  33.846  32.003
O       4.654  32.858  16.003
H       4.654  33.846  16.003
N       4.562  21.963   8.002
C       4.529  21.135   6.895
C       4.534  21.137   9.109
C       4.466  19.758   7.323
C       4.470  19.760   8.685
N       4.494  23.998   5.962
C       4.504  22.891   5.136
C       4.481  25.105   5.133
C       4.476  24.678   3.755
C       4.503  23.316   3.757
N       4.437  26.036   7.998
C       4.465  26.863   6.891
C       4.470  26.866   9.105
C       4.529  28.239   7.316
C       4.533  28.242   8.678
N       4.505  24.002  10.038
C       4.518  22.895  10.867
C       4.495  25.109  10.864
C       4.496  24.684  12.243
C       4.523  23.323  12.244
C       4.518  21.544   5.546
C       4.529  21.547  10.456
C       4.481  26.456  10.453
C       4.470  26.452   5.543
C       4.527  18.468  13.529
C       5.725  18.986  13.024
C       5.730  19.971  12.035
C       4.527  20.484  11.518
C       3.324  19.965  12.028
C       3.329  18.974  13.013
C       4.501  18.458   2.479
C       3.306  18.974   2.992
C       3.305  19.967   3.974
C       4.511  20.478   4.487
C       5.712  19.956   3.974
C       5.702  18.969   2.989
C       4.470  29.533   2.471
C       3.274  29.042   3.004
C       3.269  28.055   3.991
C       4.471  27.515   4.482
C       5.673  28.009   3.945
C       5.668  29.000   2.961
C       4.498  29.541  13.522
C       3.298  29.040  13.004
C       3.288  28.053  12.016
C       4.489  27.521  11.513
C       5.694  28.024  12.035
C       5.693  29.016  13.017
O       3.391  16.972  14.996
C       4.529  17.367  14.630
O       5.665  17.000  15.023
O       5.606  31.003   0.980
C       4.469  30.634   1.373
O       3.332  31.026   1.004
O       5.642  31.021  14.996
C       4.502  30.643  14.619
O       3.367  31.028  15.000
O       5.633  16.980   0.991
C       4.497  17.356   1.382
O       3.358  16.968   1.014
CO      4.500  24.000   8.000
H       4.412  18.908   6.657
H       4.419  18.910   9.351
H       4.457  25.342   2.906
H       4.517  22.650   2.907
H       4.580  29.089   6.649
H       4.587  29.091   9.342
H       4.482  25.350  13.093
H       4.542  22.657  13.095
H       6.650  18.586  13.434
H       6.673  20.363  11.656
H       2.381  20.343  11.638
H       2.406  18.563  13.410
H       2.380  18.569   2.593
H       2.364  20.352   4.362
H       6.656  20.342   4.355
H       6.624  18.563   2.581
H       2.348  29.459   2.615
H       2.326  27.684   4.391
H       6.617  27.611   4.315
H       6.591  29.391   2.543
H       2.375  29.452  13.404
H       2.344  27.675  11.630
H       6.635  27.632  11.653
H       6.619  29.415  13.421
N       4.562  21.963  24.002
C       4.529  21.135  22.895
C       4.534  21.137  25.109
C       4.466  19.758  23.323
C       4.470  19.760  24.685
N       4.494  23.998  21.962
C       4.504  22.891  21.136
C       4.481  25.105  21.133
C       4.476  24.678  19.755
C       4.503  23.316  19.757
N       4.437  26.036  23.998
C       4.465  26.863  22.891
C       4.470  26.866  25.105
C       4.529  28.239  23.316
C       4.533  28.242  24.678
N       4.505  24.002  26.038
C       4.518  22.895  26.867
C       4.495  25.109  26.864
C       4.496  24.684  28.243
C       4.523  23.323  28.244
C       4.518  21.544  21.546
C       4.529  21.547  26.456
C       4.481  26.456  26.453
C       4.470  26.452  21.543
C       4.527  18.468  29.529
C       5.725  18.986  29.024
C       5.730  19.971  28.035
C       4.527  20.484  27.518
C       3.324  19.965  28.028
C       3.329  18.974  29.013
C       4.501  18.458  18.479
C       3.306  18.974  18.992
C       3.305  19.967  19.974
C       4.511  20.478  20.487
C       5.712  19.956  19.974
C       5.702  18.969  18.989
C       4.470  29.533  18.471
C       3.274  29.042  19.004
C       3.269  28.055  19.991
C       4.471  27.515  20.482
C       5.673  28.009  19.945
C       5.668  29.000  18.961
C       4.498  29.541  29.522
C       3.298  29.040  29.004
C       3.288  28.053  28.016
C       4.489  27.521  27.513
C       5.694  28.024  28.035
C       5.693  29.016  29.017
O       3.391  16.972  30.996
C       4.529  17.367  30.630
O       5.665  17.000  31.023
O       5.606  31.003  16.980
C       4.469  30.634  17.373
O       3.332  31.026  17.004
O       5.642  31.021  30.996
C       4.502  30.643  30.619
O       3.367  31.028  31.000
O       5.633  16.980  16.991
C       4.497  17.356  17.382
O       3.358  16.968  17.014
CO      4.500  24.000  24.000
H       4.412  18.908  22.657
H       4.419  18.910  25.351
H       4.457  25.342  18.906
H       4.517  22.650  18.907
H       4.580  29.089  22.649
H       4.587  29.091  25.342
H       4.482  25.350  29.093
H       4.542  22.657  29.095
H       6.650  18.586  29.434
H       6.673  20.363  27.656
H       2.381  20.343  27.638
H       2.406  18.563  29.410
H       2.380  18.569  18.593
H       2.364  20.352  20.362
H       6.656  20.342  20.355
H       6.624  18.563  18.581
H       2.348  29.459  18.615
H       2.326  27.684  20.391
H       6.617  27.611  20.315
H       6.591  29.391  18.543
H       2.375  29.452  29.404
H       2.344  27.675  27.630
H       6.635  27.632  27.653
H       6.619  29.415  29.421
N       1.562   5.963  24.002
C       1.529   5.135  22.895
C       1.534   5.137  25.109
C       1.466   3.758  23.323
C       1.470   3.760  24.685
N       1.494   7.998  21.962
C       1.504   6.891  21.136
C       1.481   9.105  21.133
C       1.476   8.678  19.755
C       1.503   7.316  19.757
N       1.437  10.036  23.998
C       1.465  10.863  22.891
C       1.470  10.866  25.105
C       1.529  12.239  23.316
C       1.533  12.242  24.678
N       1.505   8.002  26.038
C       1.518   6.895  26.867
C       1.495   9.109  26.864
C       1.496   8.684  28.243
C       1.523   7.323  28.244
C       1.518   5.544  21.546
C       1.529   5.547  26.456
C       1.481  10.456  26.453
C       1.470  10.452  21.543
C       1.527   2.468  29.529
C       2.725   2.986  29.024
C       2.730   3.971  28.035
C       1.527   4.484  27.518
C       0.324   3.965  28.028
C       0.329   2.974  29.013
C       1.501   2.458  18.479
C       0.306   2.974  18.992
C       0.305   3.967  19.974
C       1.511   4.478  20.487
C       2.712   3.956  19.974
C       2.702   2.969  18.989
C       1.470  13.533  18.471
C       0.274  13.042  19.004
C       0.269  12.055  19.991
C       1.471  11.515  20.482
C       2.673  12.009  19.945
C       2.668  13.000  18.961
C       1.498  13.541  29.522
C       0.298  13.040  29.004
C       0.288  12.053  28.016
C       1.489  11.521  27.513
C       2.694  12.024  28.035
C       2.693  13.016  29.017
O       0.391   0.972  30.996
C       1.529   1.367  30.630
O       2.665   1.000  31.023
O       2.606  15.003  16.980
C       1.469  14.634  17.373
O       0.332  15.026  17.004
O       2.642  15.021  30.996
C       1.502  14.643  30.619
O       0.367  15.028  31.000
O       2.633   0.980  16.991
C       1.497   1.356  17.382
O       0.358   0.968  17.014
CO      1.500   8.000  24.000
H       1.412   2.908  22.657
H       1.419   2.910  25.351
H       1.457   9.342  18.906
H       1.517   6.650  18.907
H       1.580  13.089  22.649
H       1.587  13.091  25.342
H       1.482   9.350  29.093
H       1.542   6.657  29.095
H       3.650   2.586  29.434
H       3.673   4.363  27.656
H      -0.619   4.343  27.638
H      -0.594   2.563  29.410
H      -0.620   2.569  18.593
H      -0.636   4.352  20.362
H       3.656   4.342  20.355
H       3.624   2.563  18.581
H      -0.652  13.459  18.615
H      -0.674  11.684  20.391
H       3.617  11.611  20.315
H       3.591  13.391  18.543
H      -0.625  13.452  29.404
H      -0.656  11.675  27.630
H       3.635  11.632  27.653
H       3.619  13.415  29.421
N       1.562   5.963   8.002
C       1.529   5.135   6.895
C       1.534   5.137   9.109
C       1.466   3.758   7.323
C       1.470   3.760   8.685
N       1.494   7.998   5.962
C       1.504   6.891   5.136
C       1.481   9.105   5.133
C       1.476   8.678   3.755
C       1.503   7.316   3.757
N       1.437  10.036   7.998
C       1.465  10.863   6.891
C       1.470  10.866   9.105
C       1.529  12.239   7.316
C       1.533  12.242   8.678
N       1.505   8.002  10.038
C       1.518   6.895  10.867
C       1.495   9.109  10.864
C       1.496   8.684  12.243
C       1.523   7.323  12.244
C       1.518   5.544   5.546
C       1.529   5.547  10.456
C       1.481  10.456  10.453
C       1.470  10.452   5.543
C       1.527   2.468  13.529
C       2.725   2.986  13.024
C       2.730   3.971  12.035
C       1.527   4.484  11.518
C       0.324   3.965  12.028
C       0.329   2.974  13.013
C       1.501   2.458   2.479
C       0.306   2.974   2.992
C       0.305   3.967   3.974
C       1.511   4.478   4.487
C       2.712   3.956   3.974
C       2.702   2.969   2.989
C       1.470  13.533   2.471
C       0.274  13.042   3.004
C       0.269  12.055   3.991
C       1.471  11.515   4.482
C       2.673  12.009   3.945
C       2.668  13.000   2.961
C       1.498  13.541  13.522
C       0.298  13.040  13.004
C       0.288  12.053  12.016
C       1.489  11.521  11.513
C       2.694  12.024  12.035
C       2.693  13.016  13.017
O       0.391   0.972  14.996
C       1.529   1.367  14.630
O       2.665   1.000  15.023
O       2.606  15.003   0.980
C       1.469  14.634   1.373
O       0.332  15.026   1.004
O       2.642  15.021  14.996
C       1.502  14.643  14.619
O       0.367  15.028  15.000
O       2.633   0.980   0.991
C       1.497   1.356   1.382
O       0.358   0.968   1.014
CO      1.500   8.000   8.000
H       1.412   2.908   6.657
H       1.419   2.910   9.351
H       1.457   9.342   2.906
H       1.517   6.650   2.907
H       1.580  13.089   6.649
H       1.587  13.091   9.342
H       1.482   9.350  13.093
H       1.542   6.657  13.095
H       3.650   2.586  13.434
H       3.673   4.363  11.656
H      -0.619   4.343  11.638
H      -0.594   2.563  13.410
H      -0.620   2.569   2.593
H      -0.636   4.352   4.362
H       3.656   4.342   4.355
H       3.624   2.563   2.581
H      -0.652  13.459   2.615
H      -0.674  11.684   4.391
H       3.617  11.611   4.315
H       3.591  13.391   2.543
H      -0.625  13.452  13.404
H      -0.656  11.675  11.630
H       3.635  11.632  11.653
H       3.619  13.415  13.421
