14
generated by MOF_BUILD
O       2.633   0.980   0.991
C       1.497   1.356   1.382
O       0.358   0.968   1.014
C       1.501   2.456   2.474
H       1.228   3.089   1.631
H       0.973   2.791   3.366
H       1.227   1.423   2.256
O       2.633   0.980   0.991
C       1.497   1.356   1.382
O       0.358   0.968   1.014
C       1.501   2.456   2.474
H       1.228   3.089   1.631
H       0.973   2.791   3.366
H       1.227   1.423   2.256
