405
generated by MOF_BUILD
Al      0.000   0.000   0.000
DD     -0.877  -0.205   0.047
DD     -0.153   0.717   0.516
DD      0.121  -0.554   0.695
DD      0.870   0.206  -0.054
DD      0.173  -0.731  -0.492
DD     -0.165   0.509  -0.726
O       0.328  -1.115   1.455
H      -0.089  -2.011   1.444
Al      0.000   0.000   6.620
DD     -0.877  -0.205   6.667
DD     -0.153   0.717   7.136
DD      0.121  -0.554   7.315
DD      0.870   0.206   6.566
DD      0.173  -0.731   6.128
DD     -0.165   0.509   5.894
O       0.328  -1.115   8.075
H      -0.089  -2.011   8.064
Al      0.000   0.000  13.240
DD     -0.877  -0.205  13.287
DD     -0.153   0.717  13.756
DD      0.121  -0.554  13.935
DD      0.870   0.206  13.186
DD      0.173  -0.731  12.748
DD     -0.165   0.509  12.514
O       0.328  -1.115  14.695
H      -0.089  -2.011  14.684
Al      0.000  15.940   3.310
DD     -0.877  15.735   3.357
DD     -0.153  16.657   3.826
DD      0.121  15.386   4.005
DD      0.870  16.146   3.256
DD      0.173  15.209   2.818
DD     -0.165  16.449   2.584
O       0.328  14.825   4.765
H      -0.089  13.929   4.754
Al      0.000  15.940   9.930
DD     -0.877  15.735   9.977
DD     -0.153  16.657  10.446
DD      0.121  15.386  10.625
DD      0.870  16.146   9.876
DD      0.173  15.209   9.438
DD     -0.165  16.449   9.204
O       0.328  14.825  11.385
H      -0.089  13.929  11.374
Al      0.000  31.880   0.000
DD     -0.877  31.675   0.047
DD     -0.153  32.597   0.516
DD      0.121  31.326   0.695
DD      0.870  32.086  -0.054
DD      0.173  31.149  -0.492
DD     -0.165  32.389  -0.726
O       0.328  30.765   1.455
H      -0.089  29.869   1.444
Al      0.000  31.880   6.620
DD     -0.877  31.675   6.667
DD     -0.153  32.597   7.136
DD      0.121  31.326   7.315
DD      0.870  32.086   6.566
DD      0.173  31.149   6.128
DD     -0.165  32.389   5.894
O       0.328  30.765   8.075
H      -0.089  29.869   8.064
Al      0.000  31.880  13.240
DD     -0.877  31.675  13.287
DD     -0.153  32.597  13.756
DD      0.121  31.326  13.935
DD      0.870  32.086  13.186
DD      0.173  31.149  12.748
DD     -0.165  32.389  12.514
O       0.328  30.765  14.695
H      -0.089  29.869  14.684
Al     16.800   0.000   0.000
DD     15.923  -0.205   0.047
DD     16.647   0.717   0.516
DD     16.921  -0.554   0.695
DD     17.670   0.206  -0.054
DD     16.973  -0.731  -0.492
DD     16.635   0.509  -0.726
O      17.128  -1.115   1.455
H      16.711  -2.011   1.444
Al     16.800   0.000   6.620
DD     15.923  -0.205   6.667
DD     16.647   0.717   7.136
DD     16.921  -0.554   7.315
DD     17.670   0.206   6.566
DD     16.973  -0.731   6.128
DD     16.635   0.509   5.894
O      17.128  -1.115   8.075
H      16.711  -2.011   8.064
Al     16.800   0.000  13.240
DD     15.923  -0.205  13.287
DD     16.647   0.717  13.756
DD     16.921  -0.554  13.935
DD     17.670   0.206  13.186
DD     16.973  -0.731  12.748
DD     16.635   0.509  12.514
O      17.128  -1.115  14.695
H      16.711  -2.011  14.684
Al     16.800  15.940   3.310
DD     15.923  15.735   3.357
DD     16.647  16.657   3.826
DD     16.921  15.386   4.005
DD     17.670  16.146   3.256
DD     16.973  15.209   2.818
DD     16.635  16.449   2.584
O      17.128  14.825   4.765
H      16.711  13.929   4.754
Al     16.800  15.940   9.930
DD     15.923  15.735   9.977
DD     16.647  16.657  10.446
DD     16.921  15.386  10.625
DD     17.670  16.146   9.876
DD     16.973  15.209   9.438
DD     16.635  16.449   9.204
O      17.128  14.825  11.385
H      16.711  13.929  11.374
Al     16.800  31.880   0.000
DD     15.923  31.675   0.047
DD     16.647  32.597   0.516
DD     16.921  31.326   0.695
DD     17.670  32.086  -0.054
DD     16.973  31.149  -0.492
DD     16.635  32.389  -0.726
O      17.128  30.765   1.455
H      16.711  29.869   1.444
Al     16.800  31.880   6.620
DD     15.923  31.675   6.667
DD     16.647  32.597   7.136
DD     16.921  31.326   7.315
DD     17.670  32.086   6.566
DD     16.973  31.149   6.128
DD     16.635  32.389   5.894
O      17.128  30.765   8.075
H      16.711  29.869   8.064
Al     16.800  31.880  13.240
DD     15.923  31.675  13.287
DD     16.647  32.597  13.756
DD     16.921  31.326  13.935
DD     17.670  32.086  13.186
DD     16.973  31.149  12.748
DD     16.635  32.389  12.514
O      17.128  30.765  14.695
H      16.711  29.869  14.684
Al     33.600   0.000   0.000
DD     32.723  -0.205   0.047
DD     33.447   0.717   0.516
DD     33.721  -0.554   0.695
DD     34.470   0.206  -0.054
DD     33.773  -0.731  -0.492
DD     33.435   0.509  -0.726
O      33.928  -1.115   1.455
H      33.511  -2.011   1.444
Al     33.600   0.000   6.620
DD     32.723  -0.205   6.667
DD     33.447   0.717   7.136
DD     33.721  -0.554   7.315
DD     34.470   0.206   6.566
DD     33.773  -0.731   6.128
DD     33.435   0.509   5.894
O      33.928  -1.115   8.075
H      33.511  -2.011   8.064
Al     33.600   0.000  13.240
DD     32.723  -0.205  13.287
DD     33.447   0.717  13.756
DD     33.721  -0.554  13.935
DD     34.470   0.206  13.186
DD     33.773  -0.731  12.748
DD     33.435   0.509  12.514
O      33.928  -1.115  14.695
H      33.511  -2.011  14.684
Al     33.600  15.940   3.310
DD     32.723  15.735   3.357
DD     33.447  16.657   3.826
DD     33.721  15.386   4.005
DD     34.470  16.146   3.256
DD     33.773  15.209   2.818
DD     33.435  16.449   2.584
O      33.928  14.825   4.765
H      33.511  13.929   4.754
Al     33.600  15.940   9.930
DD     32.723  15.735   9.977
DD     33.447  16.657  10.446
DD     33.721  15.386  10.625
DD     34.470  16.146   9.876
DD     33.773  15.209   9.438
DD     33.435  16.449   9.204
O      33.928  14.825  11.385
H      33.511  13.929  11.374
Al     33.600  31.880   0.000
DD     32.723  31.675   0.047
DD     33.447  32.597   0.516
DD     33.721  31.326   0.695
DD     34.470  32.086  -0.054
DD     33.773  31.149  -0.492
DD     33.435  32.389  -0.726
O      33.928  30.765   1.455
H      33.511  29.869   1.444
Al     33.600  31.880   6.620
DD     32.723  31.675   6.667
DD     33.447  32.597   7.136
DD     33.721  31.326   7.315
DD     34.470  32.086   6.566
DD     33.773  31.149   6.128
DD     33.435  32.389   5.894
O      33.928  30.765   8.075
H      33.511  29.869   8.064
Al     33.600  31.880  13.240
DD     32.723  31.675  13.287
DD     33.447  32.597  13.756
DD     33.721  31.326  13.935
DD     34.470  32.086  13.186
DD     33.773  31.149  12.748
DD     33.435  32.389  12.514
O      33.928  30.765  14.695
H      33.511  29.869  14.684
Al      0.000   0.000   3.310
DD      0.877   0.205   3.357
DD      0.153  -0.717   3.826
DD     -0.121   0.554   4.005
DD     -0.870  -0.206   3.256
DD     -0.173   0.731   2.818
DD      0.165  -0.509   2.584
O      -0.328   1.115   4.765
H       0.089   2.011   4.754
Al      0.000   0.000   9.930
DD      0.877   0.205   9.977
DD      0.153  -0.717  10.446
DD     -0.121   0.554  10.625
DD     -0.870  -0.206   9.876
DD     -0.173   0.731   9.438
DD      0.165  -0.509   9.204
O      -0.328   1.115  11.385
H       0.089   2.011  11.374
Al      0.000  15.940   0.000
DD      0.877  16.145   0.047
DD      0.153  15.223   0.516
DD     -0.121  16.494   0.695
DD     -0.870  15.734  -0.054
DD     -0.173  16.671  -0.492
DD      0.165  15.431  -0.726
O      -0.328  17.055   1.455
H       0.089  17.951   1.444
Al      0.000  15.940   6.620
DD      0.877  16.145   6.667
DD      0.153  15.223   7.136
DD     -0.121  16.494   7.315
DD     -0.870  15.734   6.566
DD     -0.173  16.671   6.128
DD      0.165  15.431   5.894
O      -0.328  17.055   8.075
H       0.089  17.951   8.064
Al      0.000  15.940  13.240
DD      0.877  16.145  13.287
DD      0.153  15.223  13.756
DD     -0.121  16.494  13.935
DD     -0.870  15.734  13.186
DD     -0.173  16.671  12.748
DD      0.165  15.431  12.514
O      -0.328  17.055  14.695
H       0.089  17.951  14.684
Al      0.000  31.880   3.310
DD      0.877  32.085   3.357
DD      0.153  31.163   3.826
DD     -0.121  32.434   4.005
DD     -0.870  31.674   3.256
DD     -0.173  32.611   2.818
DD      0.165  31.371   2.584
O      -0.328  32.995   4.765
H       0.089  33.891   4.754
Al      0.000  31.880   9.930
DD      0.877  32.085   9.977
DD      0.153  31.163  10.446
DD     -0.121  32.434  10.625
DD     -0.870  31.674   9.876
DD     -0.173  32.611   9.438
DD      0.165  31.371   9.204
O      -0.328  32.995  11.385
H       0.089  33.891  11.374
Al     16.800   0.000   3.310
DD     17.677   0.205   3.357
DD     16.953  -0.717   3.826
DD     16.679   0.554   4.005
DD     15.930  -0.206   3.256
DD     16.627   0.731   2.818
DD     16.965  -0.509   2.584
O      16.472   1.115   4.765
H      16.889   2.011   4.754
Al     16.800   0.000   9.930
DD     17.677   0.205   9.977
DD     16.953  -0.717  10.446
DD     16.679   0.554  10.625
DD     15.930  -0.206   9.876
DD     16.627   0.731   9.438
DD     16.965  -0.509   9.204
O      16.472   1.115  11.385
H      16.889   2.011  11.374
Al     16.800  15.940   0.000
DD     17.677  16.145   0.047
DD     16.953  15.223   0.516
DD     16.679  16.494   0.695
DD     15.930  15.734  -0.054
DD     16.627  16.671  -0.492
DD     16.965  15.431  -0.726
O      16.472  17.055   1.455
H      16.889  17.951   1.444
Al     16.800  15.940   6.620
DD     17.677  16.145   6.667
DD     16.953  15.223   7.136
DD     16.679  16.494   7.315
DD     15.930  15.734   6.566
DD     16.627  16.671   6.128
DD     16.965  15.431   5.894
O      16.472  17.055   8.075
H      16.889  17.951   8.064
Al     16.800  15.940  13.240
DD     17.677  16.145  13.287
DD     16.953  15.223  13.756
DD     16.679  16.494  13.935
DD     15.930  15.734  13.186
DD     16.627  16.671  12.748
DD     16.965  15.431  12.514
O      16.472  17.055  14.695
H      16.889  17.951  14.684
Al     16.800  31.880   3.310
DD     17.677  32.085   3.357
DD     16.953  31.163   3.826
DD     16.679  32.434   4.005
DD     15.930  31.674   3.256
DD     16.627  32.611   2.818
DD     16.965  31.371   2.584
O      16.472  32.995   4.765
H      16.889  33.891   4.754
Al     16.800  31.880   9.930
DD     17.677  32.085   9.977
DD     16.953  31.163  10.446
DD     16.679  32.434  10.625
DD     15.930  31.674   9.876
DD     16.627  32.611   9.438
DD     16.965  31.371   9.204
O      16.472  32.995  11.385
H      16.889  33.891  11.374
Al     33.600   0.000   3.310
DD     34.477   0.205   3.357
DD     33.753  -0.717   3.826
DD     33.479   0.554   4.005
DD     32.730  -0.206   3.256
DD     33.427   0.731   2.818
DD     33.765  -0.509   2.584
O      33.272   1.115   4.765
H      33.689   2.011   4.754
Al     33.600   0.000   9.930
DD     34.477   0.205   9.977
DD     33.753  -0.717  10.446
DD     33.479   0.554  10.625
DD     32.730  -0.206   9.876
DD     33.427   0.731   9.438
DD     33.765  -0.509   9.204
O      33.272   1.115  11.385
H      33.689   2.011  11.374
Al     33.600  15.940   0.000
DD     34.477  16.145   0.047
DD     33.753  15.223   0.516
DD     33.479  16.494   0.695
DD     32.730  15.734  -0.054
DD     33.427  16.671  -0.492
DD     33.765  15.431  -0.726
O      33.272  17.055   1.455
H      33.689  17.951   1.444
Al     33.600  15.940   6.620
DD     34.477  16.145   6.667
DD     33.753  15.223   7.136
DD     33.479  16.494   7.315
DD     32.730  15.734   6.566
DD     33.427  16.671   6.128
DD     33.765  15.431   5.894
O      33.272  17.055   8.075
H      33.689  17.951   8.064
Al     33.600  15.940  13.240
DD     34.477  16.145  13.287
DD     33.753  15.223  13.756
DD     33.479  16.494  13.935
DD     32.730  15.734  13.186
DD     33.427  16.671  12.748
DD     33.765  15.431  12.514
O      33.272  17.055  14.695
H      33.689  17.951  14.684
Al     33.600  31.880   3.310
DD     34.477  32.085   3.357
DD     33.753  31.163   3.826
DD     33.479  32.434   4.005
DD     32.730  31.674   3.256
DD     33.427  32.611   2.818
DD     33.765  31.371   2.584
O      33.272  32.995   4.765
H      33.689  33.891   4.754
Al     33.600  31.880   9.930
DD     34.477  32.085   9.977
DD     33.753  31.163  10.446
DD     33.479  32.434  10.625
DD     32.730  31.674   9.876
DD     33.427  32.611   9.438
DD     33.765  31.371   9.204
O      33.272  32.995  11.385
H      33.689  33.891  11.374
