52
NDR
O      23.755   8.971  38.932
O       6.136   0.324  36.942
O       5.239   2.251  37.763
O      24.653   6.998  38.228
C       6.173   1.494  37.401
C      23.719   7.779  38.535
C      15.463   5.645  35.720
C      14.109   5.260  35.676
C      13.508   4.669  36.776
C      14.259   4.450  37.955
C      13.668   3.846  39.090
C      14.422   3.640  40.234
C      15.775   4.027  40.278
C      16.376   4.619  39.179
C      15.626   4.838  37.999
C      16.217   5.440  36.864
C      17.647   5.862  36.895
O      18.182   6.389  35.934
N      18.353   5.614  38.088
C      17.808   5.031  39.246
O      18.475   4.864  40.254
C      19.702   6.125  38.180
C      19.886   7.442  38.612
C      21.175   7.958  38.719
C       7.602   2.098  37.540
C      22.091   5.859  37.970
C      20.805   5.336  37.860
C      12.240   3.419  39.056
O      11.708   2.882  40.015
N      11.532   3.672  37.867
C      12.076   4.260  36.710
O      11.406   4.432  35.704
C      10.185   3.157  37.771
C       9.082   3.920  38.150
C       7.797   3.394  38.035
C       8.714   1.343  37.165
C      10.002   1.861  37.277
H      20.634   4.315  37.528
H       9.252   4.925  38.531
C      22.288   7.177  38.402
H      22.976   5.278  37.732
H       6.913   3.956  38.318
H       8.525   0.340  36.785
O      11.129   1.154  36.920
H      10.831   0.296  36.594
H      13.943   3.173  41.087
H      16.375   3.873  41.169
H      15.943   6.109  34.865
H      13.509   5.414  34.786
O      18.759   8.172  38.917
H      19.057   9.048  39.193
H      21.365   8.977  39.051
