85
TCP
N       6.671  15.947   6.385
C       6.641  17.056   5.560
C       6.639  14.842   5.556
C       6.575  16.632   4.182
C       6.575  15.270   4.180
N       6.611  17.982   8.425
C       6.622  18.811   7.320
C       6.601  18.808   9.534
C       6.600  20.187   9.111
C       6.626  20.189   7.749
N       6.548  15.941  10.458
C       6.580  17.046  11.288
C       6.578  14.832  11.285
C       6.644  16.617  12.663
C       6.644  15.255  12.662
N       6.608  13.906   8.419
C       6.618  13.080   7.310
C       6.597  13.077   9.524
C       6.593  11.699   9.095
C       6.619  11.702   7.734
C       6.634  18.404   5.972
C       6.630  13.494   5.963
C       6.585  13.485  10.872
C       6.589  18.395  10.880
C       6.616  10.429   2.876
C       7.816  10.929   3.394
C       7.824  11.915   4.382
C       6.623  12.435   4.897
C       5.419  11.930   4.377
C       5.420  10.948   3.384
C       6.625  21.479   2.894
C       5.429  20.969   3.410
C       5.425  19.984   4.400
C       6.630  19.466   4.909
C       7.832  19.976   4.388
C       7.825  20.964   3.403
C       6.601  21.459  13.969
C       5.403  20.931  13.478
C       5.394  19.946  12.488
C       6.595  19.453  11.946
C       7.799  19.985  12.441
C       7.797  20.966  13.434
C       6.594  10.408  13.949
C       5.395  10.931  13.450
C       5.388  11.921  12.465
C       6.590  12.422  11.934
C       7.794  11.895  12.435
C       7.790  10.910  13.424
O       5.474   8.970   1.377
C       6.613   9.331   1.772
O       7.748   8.935   1.403
O       7.743  22.942  15.442
C       6.605  22.554  15.073
O       5.469  22.926  15.467
O       7.734   8.926  15.424
C       6.595   9.308  15.048
O       5.459   8.930  15.433
O       7.761  22.967   1.419
C       6.624  22.579   1.795
O       5.486  22.952   1.409
CO      6.610  15.944   8.422
H       6.523  17.300   3.334
H       6.521  14.606   3.329
H       6.584  21.035   9.777
H       6.642  21.040   7.085
H       6.698  17.282  13.514
H       6.696  14.589  13.509
H       6.577  10.848   9.759
H       6.635  10.852   7.066
H       8.739  10.517   2.993
H       8.769  12.290   4.774
H       4.477  12.322   4.757
H       4.495  10.555   2.972
H       4.504  21.372   3.006
H       4.483  19.598   4.785
H       8.775  19.591   4.772
H       8.748  21.370   2.998
H       4.479  21.322  13.896
H       4.450  19.550  12.117
H       8.741  19.613  12.041
H       8.722  21.380  13.826
H       4.471  10.533  13.861
H       4.445  12.311  12.089
H       8.736  12.275  12.043
H       8.715  10.502  13.822
